FoamFile
{
    version     2.0;
    format      ascii;
    class       dictionary;
    location    "system";
    object      controlDict;
}
application     simpleFoam;
startFrom       startTime;
startTime       0;
stopAt          endTime;
endTime         1000;
deltaT          1;
writeControl    timeStep;
writeInterval   100;
purgeWrite      0;
writeFormat     ascii;
writePrecision  6;
writeCompression off;
controlDict: "FoamFile\n{\n    version     2.0;\n    format      ascii;\n    class       dictionary;\n    location    \"system\";\n    object      controlDict;\n}\napplication     simpleFoam;\nstartFrom       startTime;\nstartTime       0;\nstopAt          endTime;\nendTime         1000;\ndeltaT          1;\nwriteControl    timeStep;\nwriteInterval   100;\npurgeWrite      0;\nwriteFormat     ascii
fvSchemes: "FoamFile\n{\n    version     2.0;\n    format      ascii;\n    class       dictionary;\n    location    \"system\";\n    object      fvSchemes;\n}\nddtSchemes { default Euler; }\ngradSchemes { default Gauss linear; }\ndivSchemes { default none; div(phi,U) Gauss linearUpwind; }\nlaplacianSchemes { default Gauss linear corrected; }\ninterpolationSchemes { default linear; }\nsnGradSchemes
fvSolution: "FoamFile\n{\n    version     2.0;\n    format      ascii;\n    class       dictionary;\n    location    \"system\";\n    object      fvSolution;\n}\nsolvers\n{\n    p { solver PCG; preconditioner DIC; tolerance 1e-06; relTol 0.05; }\n    U { solver PBiCG; preconditioner DILU; tolerance 1e-06; relTol 0.05; }\n}\n"
transportProperties: "FoamFile\n{\n    version     2.0;\n    format      ascii;\n    class       dictionary;\n    location    \"constant\";\n    object      transportProperties;\n}\n\ntransportModel  Newtonian;\n\nnu              [0 2 -1 0 0 0 0] 1e-06;\nrho             [1 -3 0 0 0 0 0] 900;\n"